Header
  CHECK KEYWORDS Warn
  Mesh DB "." "mesh"
  Include Path ""
  Results Directory "."
End

Simulation
  Max Output Level = 5
  Coordinate System = Cartesian
  Coordinate Mapping(3) = 1 2 3
  Simulation Type = Steady state
  Steady State Max Iterations = 1
  Output Intervals = 1
  Timestepping Method = BDF
  BDF Order = 1
  Solver Input File = simple.sif
End

Body 1
  Target Bodies(1) = 1
  Name = "Body 1"
  Equation = 1
  Material = 1
End

Solver 1
  Equation = Heat Equation
  Procedure = "HeatSolve" "HeatSolver"
  Variable = Temperature
  Variable DOFs = 1
  Exec Solver = Always
  Stabilize = True
  Bubbles = False
  Lumped Mass Matrix = False
  Optimize Bandwidth = True
  Steady State Convergence Tolerance = 1.0e-5
  Nonlinear System Convergence Tolerance = 1.0e-7
  Nonlinear System Max Iterations = 20
  Nonlinear System Newton After Iterations = 3
  Nonlinear System Newton After Tolerance = 1.0e-3
  Nonlinear System Relaxation Factor = 1
  Linear System Solver = Iterative
  Linear System Iterative Method = BiCGStab
  Linear System Max Iterations = 500
  Linear System Convergence Tolerance = 1.0e-10
  BiCGstabl polynomial degree = 2
  Linear System Preconditioning = ILU0
  Linear System ILUT Tolerance = 1.0e-3
  Linear System Abort Not Converged = False
  Linear System Residual Output = 10
  Linear System Precondition Recompute = 1
End

Solver 2
  Equation = Result Output
  Procedure = "ResultOutputSolve" "ResultOutputSolver"
  Output File Name = "case"
  Vtu Format = Logical True
  Output Directory = "/c/Users/Daniel Lopez/Desktop/AI Gauntlet/Legacy Week/elmerfem/test"
  Exec Solver = After All
End

Equation 1
  Name = "HeatEquation"
  Active Solvers(2) = 1 2
End

Material 1
  Name = "Ideal"
  Heat Conductivity = 1.0
  Density = 1.0
  Specific Heat = 1.0
End

Boundary Condition 1
  Target Boundaries(4) = -1 -2 -3 -4
  Name = "Wall"
  Temperature = 1.0
End
